   12

C       1.230166    0.710519   -0.000000
H       2.199024    1.268194    0.000000
C       0.000000    1.421977   -0.000000
H       0.000000    2.540675    0.000000
C      -1.230166    0.710519   -0.000000
H      -2.199024    1.268194   -0.000000
C      -1.230166   -0.710519   -0.000000
H      -2.199024   -1.268194    0.000000
C       0.000000   -1.421977    0.000000
H       0.000000   -2.540675    0.000000
C       1.230166   -0.710519   -0.000000
H       2.199024   -1.268194   -0.000000
